FoamFile
{
    version     2.0;
    format      ascii;
    class       dictionary;
    location    "constant";
    object      solidProperties;
}
// * * * * * * * * * * * * * * * * * * * * * * * * * * * * * * * * * * * * * //

// linearGeometry: assumes small strains and rotations
solidModel     linearGeometryTotalDisplacement;
//solidModel     unsLinearGeometry;

"linearGeometryTotalDisplacementCoeffs|linearGeometryTotalDisplacementCoeffs|unsLinearGeometryCoeffs"
{
    // Maximum number of momentum correctors
    nCorrectors     1000;

    // Solution tolerance for displacement
    solutionTolerance 1e-05;

    // Alternative solution tolerance for displacement
    alternativeTolerance 1e-05;

    // Material law solution tolerance
    materialTolerance 1e-05;

    // Write frequency for the residuals
    infoFrequency   1;
}


// ************************************************************************* //
