FoamFile
{
    version     2.0;
    format      ascii;
    class       volScalarField;
    object      T;
}
// * * * * * * * * * * * * * * * * * * * * * * * * * * * * * * * * * * * * * //

dimensions      [0 0 0 1 0 0 0];

internalField   uniform 0;

boundaryField
{
    movingWall
    {
        type            fixedValue;
        value           uniform 373;
    }

    fixedWalls
    {
        type            fixedValue;
        value           uniform 273;
    }

    frontAndBack
    {
        type            empty;
    }
}

// ************************************************************************* //
